/*--------------------------------*- C++ -*----------------------------------*\
  =========                 |
  \\      /  F ield         | OpenFOAM: The Open Source CFD Toolbox
   \\    /   O peration     | Website:  https://openfoam.org
    \\  /    A nd           | Version:  6
     \\/     M anipulation  |
\*---------------------------------------------------------------------------*/
FoamFile
{
    version     2.0;
    format      ascii;
    class       volVectorField;
    location    "0";
    object      t_b;
}
// * * * * * * * * * * * * * * * * * * * * * * * * * * * * * * * * * * * * * //

dimensions      [1 -1 -2 0 0 0 0];

#include "../constant/runParameters"

internalField   uniform (0 0 0);

boundaryField
{
    wetsurface
    {
        type    tractionTraction;
	loadingType FSI;
        pressure   $p;
	value  uniform (0 0 0);
    }

   clamp
    {
        type    movingTraction;
        value   uniform (0 0 0);
    }
}

// ************************************************************************* //
