FoamFile
{
    version         2.0;
    format          ascii;
    class           dictionary;
    object          blockMeshDict;
}
// * * * * * * * * * * * * * * * * * * * * * * * * * * * * * * * * * * * * * //

convertToMeters 1;

vertices
(
    // Block 0
    (0.25 0.19 -0.005)                // vertex 0
    (0.60 0.19 -0.005)		      // vertex 1
    (0.60 0.21 -0.005)		      // vertex 2
    (0.25 0.21 -0.005)		      // vertex 3

    (0.25 0.19 0.005)                 // vertex 4
    (0.60 0.19 0.005)		      // vertex 5
    (0.60 0.21 0.005)		      // vertex 6
    (0.25 0.21 0.005)		      // vertex 7


);


blocks
(
    hex ( 0  1  2  3  4  5  6  7) (25 5 5) simpleGrading (1 1 1)
);

edges
(

);

boundary
(
    clamp
    {
        type patch;
        faces
        (
            (0 3 7 4)
        );
    }

    wetsurface
    {
        type patch;
        faces
        (
            (0 1 2 3) (7 6 2 3) (4 5 6 7) (4 5 1 0) (1 5 6 2)
	);
    }
);

mergePatchPairs
(
);


// ************************************************************************* //
